         MACRO                                                          00010000
&NAME    RUNCMD                                                         00020000
.*                                                                      00030000
.*             THIS MACRO INVOKES JOL TO RUN UNDER TSO/TSS.             00040000
.*                                                                      00050000
         ACTR  400000        SEEMS TO REQUIRE MORE THAN THE DEFAULT     00060000
         LCLA  &A,&A2                                                   00070000
         LCLA  &LETVAL                                                  00080000
         LCLB  &B,&B1          FLAG                                     00090000
         LCLB  &ERR            ERROR FLAG                               00100000
         LCLB  &MVSXA,&MVS,&F4                                          00110000
         LCLC  &LETPR                                                   00120000
         LCLC  &C,&CX,&WRKUNIT,&PRE,&SOUT                               00130000
         LCLC  &PE,&PI,&PM,&LT,&SB,&TST                                 00140000
         LCLC  &FL,&CT,&PJ,&PO,&PC,&SYNT                                00150000
         LCLC  &TITLE                                                   00160000
&LETPR   SETC  'PROMPT'            DEFAULT FOR SECOND LET SUBFIELD      00170000
&TITLE   SETC  'JOL/TSO INTERFACE       '                               00180000
&NAME    TITLE '&TITLE MAINLINE CODE'                                   00190000
         PUNCH '         PAGE      &NAME'                               00200000
&A       SETA  0                                                        00210000
&NAME    CSECT                                                          00220000
         SPACE 2                                                        00230000
* DEFINE SYMBOLIC NAMES FOR THE GENERAL PURPOSE REGISTERS               00240000
&A       SETA  0                                                        00250000
         SPACE                                                          00260000
.EQ010   AIF   (&A GT 15).EQ090                                         00270000
&C       SETC  'R'.'&A'                                                 00280000
         AIF   (&A GT 9).EQ020                                          00290000
&C       SETC  'R'.'0'.'&A'                                             00300000
.EQ020   ANOP                                                           00310000
&C       EQU   &A                                                       00320000
&A       SETA  &A+1                                                     00330000
         AGO   .EQ010                                                   00340000
.EQ090   ANOP                                                           00350000
         SPACE 1                                                        00360000
CBUFREG  EQU   R07                 REG PTS TO COMMAND BUFFER            00370000
UPTREG   EQU   R08                 REG PTS TO USER PROFILE TABLE        00380000
PSCBREG  EQU   R09                 REG PTS TO PSCB                      00390000
ECTREG   EQU   R10                 REG PTS TO ECT                       00400000
         SPACE 1                                                        00410000
         USING &NAME,R15                                                00420000
         B     &PRE.010                                                 00430000
         DC    AL1(&PRE.010-*),C'&NAME VERSION 4.0 ASSEMBLED AT &SYSTIM.00440000
               E ON &SYSDATE'                                           00450000
         DC    C'   COPYRIGHT 1987 CCS-JOL PTY LTD'                     00460000
&PRE.010 DS    0H                                                       00470000
         STM   R14,R12,12(R13)     SAVE REGISTERS                       00480000
         LR    R12,R15             LOAD                                 00490000
         LA    R11,2048(0,R12)                                          00500000
         LA    R11,2048(0,R11)     ADDRESS ANOTHER 4K                   00510000
         USING &NAME,R12,R11        AND DECLARE BASE                    00520000
         USING WKAREA,R13                                               00530000
         USING UPT,UPTREG                                               00540000
         USING PSCB,PSCBREG                                             00550000
         USING ECT,ECTREG                                               00560000
         DROP  R15                                                      00570000
         LM    R07,R10,0(R01)      LOAD ADDRESSES OF PARAMETERS         00580000
         GETMAIN R,LV=WKALEN,SP=1  GET A WORK AREA                      00590000
         ST    R13,4(0,R01)        CHAIN SAVE AREAS                     00600000
         ST    R01,8(0,R13)                                             00610000
         LR    R13,R01                                                  00620000
         LA    R15,WKALEN-8                                             00630000
         LA    R14,8(0,R13)                                             00640000
         SLR   R01,R01                                                  00650000
         MVCL  R14,R00             CLEAR THE WORK AREA                  00660000
         SPACE                                                          00670000
         ST    UPTREG,IOPL                                              00680000
         ST    ECTREG,IOPL+4                                            00690000
         LA    R14,IOECB                                                00700000
         LA    R15,IOPB                                                 00710000
         STM   R14,R15,IOPL+8                                           00720000
         SPACE                                                          00730000
         TM    PSCBATR1,PSCBJCL    Q... JCL/JOL USER?                   00740000
         BZ    &PRE.NJCL           A... NO: EXIT HIM                    00750000
         SPACE                                                          00760000
         LA    R01,MYPPL           SET UP ADDRESSABILITY FOR PPL        00770000
         USING PPL,R01                                                  00780000
         ST    R01,PPLADDR         STORE PPL ADDR                       00790000
         ST    UPTREG,PPLUPT       SET UP PARSE PARAMETER LIST          00800000
         ST    ECTREG,PPLECT                                            00810000
         LA    R00,MYECB                                                00820000
         ST    R00,PPLECB                                               00830000
&C       SETC  '&PRE'.'PARM'                                            00840000
         L     R00,=V(&C)          LOAD ADDRESS OF PARM DEFINITIONS     00850000
         ST    R00,PPLPCL                                               00860000
         LA    R00,PPLREPL                                              00870000
         ST    R00,PPLANS                                               00880000
         ST    R13,PPLUWA          STORE ADDRESS OF WORK AREA           00890000
         ST    CBUFREG,PPLCBUF                                          00900000
         LINK  EP=IKJPARS          LINK TO PARSE ROUTINE                00910000
         LTR   R15,R15             CHECK THAT PARSE COMPLETED OK        00920000
         BZ    &PRE.100            BRANCH IF IT DID                     00930000
         ST    R15,TEMP            CONVERT RETURN CODE TO HEX           00940000
         UNPK  HEXCONV(9),TEMP                                          00950000
         TR    HEXCONV(9),HEXTAB                                        00960000
         LA    R15,MSGRC                                                00970000
         ST    R15,OLD1#2                                               00980000
         MVC   MSGRC(4),=Y(6,13)                                        00990000
         MVC   MSGRC+4(2),HEXCONV+6                                     01000000
         LA    R15,MSG3                                                 01010000
         ST    R15,OLD1#1                                               01020000
         LA    R15,2                                                    01030000
         ST    R15,OLD1                                                 01040000
         PUTLINE MF=(E,IOPL),PARM=IOPB,                                C01050000
               OUTPUT=(OLD1,TERM,SINGLE,INFOR)                          01060000
         B     &PRE.900                                                 01070000
         USING IKJPARMD,R03                                             01080000
&PRE.100 L     R03,PPLREPL         ADDRESS OF REPLY                     01090000
         SPACE                                                          01100000
         SPACE                                                          01110000
*        CLI   SYNT+1,1             IF SYNTAX CHECK                     01120000
*        BNE   *+8                  THEN                                01130000
*        OI    FLAG,QSUB             ASK WHETHER TO SUBMIT              01140000
         SPACE                                                          01150000
*   ALLOCATE INPUT DATASET                                              01160000
         SPACE                                                          01170000
         LA    R01,DSNAME                                               01180000
         ST    R01,APDE            SET POINTER TO PDE FOR DSNAME        01190000
         LA    R00,4                                                    01200000
         STH   R00,ASUFFIXL                                             01210000
         MVC   ASUFFIX,=CL9'.JOL'                                       01220000
         OI    AFLAG1,ASHR                                              01230000
         MVC   ADDNAME,=CL8'$$JIN'                                      01240000
         BAL   R14,ALLOCATE        ALLOCATE INPUT DATASET               01250000
         LTR   R15,R15                                                  01260000
         BNZ   &PRE.900                                                 01270000
         CLI   TUDSNENT,C'*'       ALLOCATED TO TERMINAL?               01280000
         BNE   &PRE.110            NO                                   01290000
         OI    FLAG,TERMIN         SET FLAG FOR LATER                   01300000
         SPACE                                                          01310000
*   ALLOCATE TERMINAL DATASET                                           01320000
         SPACE                                                          01330000
&PRE.110 DS    0H                                                       01340000
         CLI   TERMINAL+1,1                                             01350000
         BNE   &PRE.120                                                 01360000
         OI    AFLAG1,ATERM                                             01370000
         MVC   ADDNAME,=CL8'SYSTERM'                                    01380000
         BAL   R14,ALLOCATE        ALLOCATE SYSTERM                     01390000
         LTR   R15,R15                                                  01400000
         BNZ   &PRE.900                                                 01410000
         SPACE                                                          01420000
         BAL   R14,STPARMS         GO AND SET-UP JOL PARAMETERS         01430000
         SPACE 3                                                        01440000
         MVC   LINKSFE,LINKSFL                                          01450000
         MVC   LINKDCBE,LINKDCBL                                        01460000
         XC    DCBEXLST-IHADCB+LINKDCBE+1(3),DCBEXLST-IHADCB+LINKDCBE+1 01470000
*        MVI   OPENLIST,X'80'                              CVC          01480000
         LA    R01,OPENLIST                                CVC          01490000
         LA    R00,LINKDCBE                                CVC          01500000
         ST    R00,0(1,0)                                  CVC          01510000
         MVI   OPENLIST,X'80'                                           01520000
*        OPEN  LINKDCBE,MF=(E,OPENLIST)                                 01530000
         OI    PARM,X'80'          MARK END OF LIST                     01540000
         TM    FLAG,TERMIN         Q... INPUT FROM TERMINAL?            01550000
         BZ    &PRE.315            A... NO                              01560000
         LA    R15,MSG8            TIME TO ENTER JOL COMMANDS           01570000
         ST    R15,OLD1#1             SO TELL THE NICE USER             01580000
         LA    R15,1                                                    01590000
         ST    R15,OLD1                                                 01600000
         PUTLINE MF=(E,IOPL),PARM=IOPB,                                C01610000
               OUTPUT=(OLD1,TERM,SINGLE,INFOR)                          01620000
&PRE.315 DS    0H                                                       01630000
         LINK  EP=&PGM,MF=(E,PARM),SF=(E,LINKSFE) DCB=LINKDCBE          01640000
&PRE.320 DS    0H                                                       01650000
*        CLOSE MF=(E,OPENLIST)                                          01660000
         BAL   R14,QSUBMIT         FIND OUT WHETHER TO SUBMIT OR RUN    01670000
         B     &PRE.900            IF RETURN HERE THEN NO               01680000
         DS    0H                  RETURN HERE MEANS YES                01690000
         MVC   DCBDDNAM-IHADCB+LINKDCBE,=CL8'$$JCL'                     01700000
         LA    R00,JFCBPTR                                              01710000
         STCM  R00,7,DCBEXLST-IHADCB+LINKDCBE+1                         01720000
         LA    R00,WRKJFCB                                              01730000
         ST    R00,JFCBPTR                                              01740000
         MVI   JFCBPTR,X'87'                                            01750000
         RDJFCB MF=(E,OPENLIST)                                         01760000
         GETMAIN R,LV=64,SP=1                                           01770000
*        MVC   0(10,R01),=X'00370005D3C9E2E3407D'                       01780000
         MVC   0(10,R01),=X'00370005E2E4C240407D'                       01790000
         MVC   10(45,R01),WRKJFCB  COPY DSNAME                          01800000
         LA    R14,10(0,R01)                                            01810000
         LA    R00,45                                                   01820000
         CLI   1(R14),C' '                                              01830000
         LA    R14,1(0,R14)                                             01840000
         BE    *+8                                                      01850000
         BCT   R00,*-12                                                 01860000
         MVI   0(R14),C''''                                             01870000
* IF RUNNING NOW UNDER TSO, XCTL TO A DIFFERENT PROGRAM.                01880000
         CLI   TSO+1,X'01'  RUNNING NOW?                                01890000
         BNE   DOSUB                                                    01900000
DOTSO    L     R14,4(0,R13)                                             01910000
         L     R02,24(0,R14)                                            01920000
         ST    R01,00(0,R02)                                            01930000
         LR    R01,R13                                                  01940000
         LR    R13,R14                                                  01950000
         FREEMAIN R,LV=WKALEN,SP=1,A=(1)                                01960000
         LR    R01,R02                                                  01970000
         XCTL  (2,12),EP=$JOLDY40,MF=(E,(1))                            01980000
DOSUB    L     R14,4(0,R13)                                             01990000
         L     R02,24(0,R14)                                            02000000
         ST    R01,00(0,R02)                                            02010000
         LR    R01,R13                                                  02020000
         LR    R13,R14                                                  02030000
         FREEMAIN R,LV=WKALEN,SP=1,A=(1)                                02040000
         LR    R01,R02                                                  02050000
*        XCTL  (2,12),EP=LIST,MF=(E,(1))                                02060000
         XCTL  (2,12),EP=SUB,MF=(E,(1))                                 02070000
&PRE.900 DS    0H                                                       02080000
         LR    R01,R13                                                  02090000
         L     R13,4(0,R13)                                             02100000
         ST    R15,16(0,R13)      STORE RETURN CODE                     02110000
         FREEMAIN R,LV=WKALEN,SP=1,A=(1)                                02120000
         LM    R14,R12,12(R13)                                          02130000
         BR    R14                                                      02140000
         TITLE '&TITLE SUBROUTINE TO SET-UP JOL PARAMETERS'             02150000
STPARMS  ST    R14,STPRETN                                              02160000
         LA    R00,PRMOPTNS        SET UP PARM LIST                     02170000
         ST    R00,PARM                                                 02180000
         LA    R15,PRMOPTNS+2                                           02190000
         XC    PRMOPTNS,PRMOPTNS                                        02200000
STP200   DS    0H                                                       02210000
         LA    R00,PRMOPTNS+2                                           02220000
         SR    R15,R00                                                  02230000
         STH   R15,PRMOPTNS                                             02240000
         L     R14,STPRETN                                              02250000
         BR    R14                                                      02260000
         TITLE '&TITLE DYNAMIC CONCATENATION SUBROUTINE'                02270000
CONCAT   STM   R02,R14,CONCREGS    SAVE RETURN ADDRESS                  02280000
         BAL   R14,DECONC          ENSURE DDNAME IS NOT CONCATENATED    02290000
         SLR   R04,R04             CLEAR DDNAME COUNTER                 02300000
         L     R05,APDE            LOAD PDE ADDRESS                     02310000
         USING DSPDE,R05                                                02320000
         OI    AFLAG1,APDS         INDICATE PARTITIONED DATASET         02330000
         MVC   CFLAGS,AFLAGS       SAVE ALLOCATION FLAGS                02340000
         MVC   CSUFFIX,ASUFFIXL    SAVE QUALIFIER SUFFIX                02350000
         LA    R03,TUCONC          ADDRESS OF TEXT UNIT                 02360000
         XC    0(TUCONCL,R03),0(R03) CLEAR IT                           02370000
         MVI   5(R03),8            STORE DDNAME LENGTH                  02380000
         MVC   6(8,R03),ADDNAME    SAVE CONCATENATION DDNAME            02390000
CONC0050 DS    0H                                                       02400000
         MVC   AFLAGS,CFLAGS       STORE ALLOCATION FLAGS               02410000
         MVC   ASUFFIXL(L'ASUFFIXL+L'ASUFFIX),CSUFFIX                   02420000
         ST    R05,APDE            STORE PDE ADDRESS                    02430000
         BAL   R14,ALLOCATE        ALLOCATE A DATASET                   02440000
         LTR   R15,R15             Q... OK?                             02450000
         BNZ   CONC0900            A... NO                              02460000
         LA    R04,1(0,R04)        COUNT THE DDNAME                     02470000
         CLI   TURETDD,X'00'                                            02480000
         BE    CONC0060                                                 02490000
         LA    R03,10(0,R03)       ADDRESS THE NEXT                     02500000
         MVI   5(R03),8            STORE THE LENGTH                     02510000
         MVC   6(8,R03),TURETDD    COPY THE DDNAME                      02520000
CONC0060 DS    0H                                                       02530000
         ICM   R05,7,DSNEXT+1      POINT TO THE NEXT                    02540000
         BNZ   CONC0050            PROCESS THE NEXT                     02550000
CONC0100 DS    0H                                                       02560000
         CH    R04,=H'1'                                                02570000
         BNH   CONC0900                                                 02580000
         BAL   R14,INITS99R        INITIALISE THE REQ BLK               02590000
         MVI   S99VERB,X'03'       INDICATE CONCATENATION               02600000
         MVI   TUCONC+1,X'01'      TEXT UNIT TYPE                       02610000
         STH   R04,TUCONC+2        NUMBER                               02620000
         LA    R00,TUCONC          BUILD TEXT UNIT LIST                 02630000
         LA    R15,S99TUPL                                              02640000
         ST    R00,0(,R15)         ENTRY TO THE LIST                    02650000
         TM    CFLAG2,APERMC       Q... PERMANENT CONCATENATION?        02660000
         BZ    CONC0110            A... NO                              02670000
         LA    R14,=X'00040000'    TEXT UNIT FOR PERMANENT CONCAT       02680000
         LA    R15,4(,R15)         POINT TO THE NEXT POSITION           02690000
         ST    R14,0(,R15)                                              02700000
CONC0110 DS    0H                                                       02710000
         MVI   0(R15),X'80'        END OF THE LIST                      02720000
         LA    R01,S99RBPTR                                             02730000
SVC99B   SVC   99                  ISSUE THE REQUEST                    02740000
         LTR   R15,R15             Q... OK?                             02750000
         BZ    CONC0800            A... YES                             02760000
         BAL   R14,S99MSG          ISSUE AN ERROR MSG                   02770000
         LA    R15,8                                                    02780000
         B     CONC0900            EXIT                                 02790000
CONC0800 DS    0H                                                       02800000
CONC0900 DS    0H                                                       02810000
         XC    APT,APT             ENSURE APT IS CLEARED                02820000
         LM    R02,R14,CONCREGS                                         02830000
         BR    R14                                                      02840000
         TITLE '&TITLE DYNAMIC ALLOCATION ROUTINE'                      02850000
ALLOCATE STM   R02,R14,ALLCREGS                                         02860000
.*  TEXT UNIT TYPES                                                     02870000
.*   VOLSER  X'0010'                                                    02880000
.*   DUMMY   X'00240000'                                                02890000
         BAL   R14,INITS99R                                             02900000
         LA    R06,S99TUPL-4       POINTER TO TEXT UNIT POINTER         02910000
         TM    AFLAG1,ANULL                                             02920000
         BO    ALLC0100            GO AND ALLOCATE A DUMMY DATASET      02930000
         TM    AFLAG1,ASOUT                                             02940000
         BO    ALLC0200            GO AND ALLOCATE A SYSOUT DATASET     02950000
         L     R05,APDE                                                 02960000
         USING DSPDE,R05                                                02970000
         BAL   R14,QUAL            ADD QUALIFIERS AND SET-UP TEXT UNIT  02980000
         SPACE                                                          02990000
*   TERMINAL ALLOCATION FLAG MAY BE SET BY QUALIFY S/R                  03000000
         SPACE                                                          03010000
         TM    AFLAG1,ATERM        TEST FOR TERMINAL ALLOCATION         03020000
         BO    ALLC0300            GO AND ALLOCATE A TERMINAL DATASET   03030000
         MVC   TUDSN(4),=X'00020001'                                    03040000
         LA    R00,TUDSN                                                03050000
         LA    R06,4(0,R06)        POINT TO NEXT TEXT UNIT PTR          03060000
         ST    R00,0(0,R06)                                             03070000
         MVI   AMBRNAME,C' '       CLEAR MEMBER NAME FOR DSAB SEARCH    03080000
         MVC   AMBRNAME+1(7),AMBRNAME                                   03090000
         TM    MBRFLG,X'80'        Q... MEMBER GIVEN?                   03100000
         BZ    ALLC0030            A... NO                              03110000
         SPACE                                                          03120000
*    SET UP TEXT UNIT FOR THE MEMBER                                    03130000
         SPACE                                                          03140000
         MVC   TUMBR(14),=X'0003000100084040404040404040'               03150000
         LH    R14,MBRLEN          LOAD THE LENGTH                      03160000
         BCTR  R14,0                                                    03170000
         L     R15,MBRPT                                                03180000
         MVC   TUMBR+6(0),0(R15)                                        03190000
         EX    R14,*-6                                                  03200000
         MVC   AMBRNAME,TUMBR+6    COPY MEMBER FOR DSAB SEARCH          03210000
         LA    R00,TUMBR                                                03220000
         LA    R06,4(0,R06)        POINT TO NEXT TEXT UNIT PTR          03230000
         ST    R00,0(0,R06)                                             03240000
ALLC0030 DS    0H                                                       03250000
         SPACE 2                                                        03260000
* NOW DSN AND MEMBER ARE SET UP. CAN SEARCH FOR EXISTING ALLOCATION     03270000
         SPACE 1                                                        03280000
         BAL   R14,SCHDSABQ        GO AND SEARCH DSAB QUEUE             03290000
         B     ALLC0600            BRANCH IF FOUND                      03300000
         SPACE 2                                                        03310000
         TM    PSDFLG,X'80'        Q... PASSWORD?                       03320000
         BZ    ALLC0040            A... NO                              03330000
         MVC   TUPSD(4),=X'00500001' SET CODE, NUMBER                   03340000
         LH    R14,PSDLEN          LOAD THE LENGTH                      03350000
         STH   R14,TUPSD+4         STORE LENGTH IN TEXT UNIT            03360000
         BCTR  R14,0                                                    03370000
         L     R15,PSDPT                                                03380000
         MVC   TUPSD+6(0),0(R15)                                        03390000
         EX    R14,*-6                                                  03400000
         LA    R00,TUPSD                                                03410000
         LA    R06,4(0,R06)        POINT TO NEXT TEXT UNIT PTR          03420000
         ST    R00,0(0,R06)                                             03430000
ALLC0040 DS    0H                                                       03440000
         OC    AUNIT,AUNIT                                              03450000
         BZ    ALLC0050            BRANCH IF UNIT NOT GIVEN             03460000
         MVC   TUUNIT(6),=X'001500010008' SET TU FOR UNIT               03470000
         MVC   TUUNIT+6(8),AUNIT    COPY UNIT NAME                      03480000
         LA    R00,TUUNIT                                               03490000
         LA    R06,4(0,R06)        POINT TO NEXT TEXT UNIT PTR          03500000
         ST    R00,0(0,R06)                                             03510000
ALLC0050 DS    0H                                                       03520000
         MVC   TUDISP(7),=X'00040001000108' DISP=SHR                    03530000
         TM    AFLAG1,ASHR         CORRECT?                             03540000
         BO    ALLC0055             YES                                 03550000
         MVI   TUDISP+6,X'04'      DISP=NEW                             03560000
         TM    AFLAG1,ATEMP+AMOD   CORRECT?                             03570000
         BNZ   ALLC0055                                                 03580000
         MVI   TUDISP+6,X'01'      DISP=OLD                             03590000
ALLC0055 DS    0H                                                       03600000
         LA    R00,TUDISP                                               03610000
         LA    R06,4(0,R06)        POINT TO NEXT TEXT UNIT PTR          03620000
         ST    R00,0(0,R06)                                             03630000
         OC    AVOL,AVOL                                                03640000
         BZ    ALLC0060            BRANCH IF VOL NOT GIVEN              03650000
         MVC   TUVOL(6),=X'001000010006' SET TU FOR VOLUME SERIAL NO    03660000
         MVC   TUVOL+6(8),AVOL     COPY VOLUME SERIAL NUMBER            03670000
         LA    R00,TUVOL                                                03680000
         LA    R06,4(0,R06)        POINT TO NEXT TEXT UNIT PTR          03690000
         ST    R00,0(0,R06)                                             03700000